Version 4
SHEET 1 1608 760
WIRE 304 32 240 32
WIRE 512 32 384 32
WIRE 816 32 704 32
WIRE 928 32 896 32
WIRE 416 80 416 -48
WIRE -32 96 -128 96
WIRE 128 96 48 96
WIRE 240 96 240 32
WIRE 240 96 208 96
WIRE 384 96 240 96
WIRE 800 96 800 -32
WIRE 512 112 512 32
WIRE 512 112 448 112
WIRE 608 112 512 112
WIRE 704 112 704 32
WIRE 704 112 688 112
WIRE 768 112 704 112
WIRE -32 128 -128 128
WIRE 128 128 48 128
WIRE 240 128 208 128
WIRE 384 128 240 128
WIRE 928 128 928 32
WIRE 928 128 832 128
WIRE 1104 128 928 128
WIRE 768 144 704 144
WIRE 704 160 704 144
WIRE 240 176 240 128
WIRE 800 176 800 160
WIRE 1104 176 1104 128
WIRE 416 224 416 144
WIRE 1360 288 1216 288
WIRE 1472 288 1440 288
WIRE 1344 336 1344 240
WIRE 1104 352 1104 256
WIRE 1216 352 1216 288
WIRE 1216 352 1104 352
WIRE 1312 352 1216 352
WIRE 1472 368 1472 288
WIRE 1472 368 1376 368
WIRE 1552 368 1472 368
WIRE 1312 384 1264 384
WIRE 1264 400 1264 384
WIRE 1104 464 1104 352
WIRE 1344 480 1344 400
WIRE 816 512 720 512
WIRE 928 512 896 512
WIRE 800 560 800 464
WIRE 512 576 512 112
WIRE 608 576 512 576
WIRE 720 576 720 512
WIRE 720 576 688 576
WIRE 768 576 720 576
WIRE 928 592 928 512
WIRE 928 592 832 592
WIRE 1104 592 1104 544
WIRE 1104 592 928 592
WIRE 768 608 720 608
WIRE 800 640 800 624
WIRE 720 688 720 608
FLAG 240 256 0
FLAG 416 304 0
FLAG -128 128 0
FLAG -128 96 0
FLAG 720 688 0
FLAG 704 160 0
FLAG 800 256 0
FLAG 800 720 0
FLAG 800 384 0
FLAG 800 -112 0
FLAG 1264 400 0
FLAG 1344 160 0
FLAG 1344 560 0
FLAG 1552 368 out
FLAG 416 -128 0
DATAFLAG 512 112 ""
SYMBOL res 224 80 R90
WINDOW 0 0 56 VBottom 2
WINDOW 3 32 56 VTop 2
SYMATTR InstName R1
SYMATTR Value 1k
SYMBOL res 224 112 R90
WINDOW 0 0 56 VBottom 2
WINDOW 3 32 56 VTop 2
SYMATTR InstName R2
SYMATTR Value 4k
SYMBOL res 224 160 R0
SYMATTR InstName R3
SYMATTR Value 4k
SYMBOL voltage 416 -32 R180
WINDOW 0 24 96 Left 2
WINDOW 3 24 16 Left 2
WINDOW 123 0 0 Left 0
WINDOW 39 0 0 Left 0
SYMATTR InstName 1VCC+
SYMATTR Value 12
SYMBOL voltage 416 320 R180
WINDOW 0 24 96 Left 2
WINDOW 3 24 16 Left 2
WINDOW 123 0 0 Left 0
WINDOW 39 0 0 Left 0
SYMATTR InstName 1VCC-
SYMATTR Value 12
SYMBOL voltage 64 96 R90
WINDOW 0 -32 56 VBottom 2
WINDOW 3 32 56 VTop 2
SYMATTR InstName FB
SYMATTR Value 3
SYMBOL voltage 64 128 R90
WINDOW 0 -32 56 VBottom 2
WINDOW 3 32 56 VTop 2
SYMATTR InstName Ref
SYMATTR Value 5
SYMBOL res 400 16 R90
WINDOW 0 0 56 VBottom 2
WINDOW 3 32 56 VTop 2
SYMATTR InstName R4
SYMATTR Value 1k
SYMBOL res 704 560 R90
WINDOW 0 0 56 VBottom 2
WINDOW 3 32 56 VTop 2
SYMATTR InstName R5
SYMATTR Value 1
SYMBOL OpAmps\\UniversalOpamp2 800 592 R0
SYMATTR InstName U2
SYMBOL res 704 96 R90
WINDOW 0 0 56 VBottom 2
WINDOW 3 32 56 VTop 2
SYMATTR InstName R6
SYMATTR Value 1
SYMBOL OpAmps\\UniversalOpamp2 800 128 R0
SYMATTR InstName U3
SYMBOL voltage 800 480 R180
WINDOW 0 24 96 Left 2
WINDOW 3 24 16 Left 2
SYMATTR InstName 2VCC+
SYMATTR Value 12
SYMBOL voltage 800 272 R180
WINDOW 0 24 96 Left 2
WINDOW 3 24 16 Left 2
SYMATTR InstName 3VCC-
SYMATTR Value 12
SYMBOL voltage 800 736 R180
WINDOW 0 24 96 Left 2
WINDOW 3 24 16 Left 2
SYMATTR InstName 2VCC-
SYMATTR Value 12
SYMBOL voltage 800 -16 R180
WINDOW 0 24 96 Left 2
WINDOW 3 24 16 Left 2
SYMATTR InstName 3VCC+
SYMATTR Value 12
SYMBOL res 912 16 R90
WINDOW 0 0 56 VBottom 2
WINDOW 3 32 56 VTop 2
SYMATTR InstName R7
SYMATTR Value 1
SYMBOL res 1088 160 R0
SYMATTR InstName R8
SYMATTR Value 1
SYMBOL res 1088 448 R0
SYMATTR InstName R9
SYMATTR Value 1
SYMBOL OpAmps\\UniversalOpamp2 1344 368 R0
SYMATTR InstName U4
SYMBOL voltage 1344 256 R180
WINDOW 0 24 96 Left 2
WINDOW 3 24 16 Left 2
SYMATTR InstName 4VCC+
SYMATTR Value 12
SYMBOL voltage 1344 576 R180
WINDOW 0 24 96 Left 2
WINDOW 3 24 16 Left 2
SYMATTR InstName 4VCC-
SYMATTR Value 12
SYMBOL res 1456 272 R90
WINDOW 0 0 56 VBottom 2
WINDOW 3 32 56 VTop 2
SYMATTR InstName R10
SYMATTR Value 1
SYMBOL res 912 496 R90
WINDOW 0 0 56 VBottom 2
WINDOW 3 32 56 VTop 2
SYMATTR InstName R11
SYMATTR Value 1
SYMBOL OpAmps\\LT1056 416 48 R0
SYMATTR InstName U1
TEXT -520 -368 Left 2 ;R1 = R2
TEXT -522 744 Left 2 !.tran 1
